[TITLE]
Ejemplo 3 de Red en EPANET
Ejemplo que muestra como cambia a lo largo del tiempo la cantidad de 
agua en un lago que posee un sistema de llenado contituido por dos 
fuentes.

[JUNCTIONS]
;ID              	Elev        	Demand      	Pattern         
 10              	44.80       	0.00        	                	;
 15              	9.75        	0.06        	3               	;
 20              	39.32       	0.00        	                	;
 35              	3.81        	0.06        	4               	;
 40              	40.20       	0.00        	                	;
 50              	35.51       	0.00        	                	;
 60              	0.00        	0.00        	                	;
 601             	0.00        	0.00        	                	;
 61              	0.00        	0.00        	                	;
 101             	12.80       	11.98       	                	;
 103             	13.11       	8.40        	                	;
 105             	8.69        	8.54        	                	;
 107             	6.71        	3.45        	                	;
 109             	6.19        	14.60       	                	;
 111             	3.05        	8.95        	                	;
 113             	0.61        	1.26        	                	;
 115             	4.27        	3.29        	                	;
 117             	4.15        	7.43        	                	;
 119             	0.61        	11.11       	                	;
 120             	0.00        	0.00        	                	;
 121             	-0.61       	2.63        	                	;
 123             	3.35        	0.06        	2               	;
 125             	3.35        	2.88        	                	;
 127             	17.07       	1.11        	                	;
 129             	15.54       	0.00        	                	;
 131             	1.83        	2.70        	                	;
 139             	9.45        	0.37        	                	;
 141             	1.22        	0.62        	                	;
 143             	-1.37       	0.39        	                	;
 145             	0.30        	1.74        	                	;
 147             	5.64        	0.54        	                	;
 149             	4.88        	1.71        	                	;
 151             	10.21       	9.12        	                	;
 153             	20.18       	2.79        	                	;
 157             	3.99        	3.27        	                	;
 159             	1.83        	2.61        	                	;
 161             	1.22        	1.00        	                	;
 163             	1.52        	0.59        	                	;
 164             	1.52        	0.00        	                	;
 166             	-0.61       	0.16        	                	;
 167             	-1.52       	0.92        	                	;
 169             	-1.52       	0.00        	                	;
 171             	-1.22       	2.48        	                	;
 173             	-1.22       	0.00        	                	;
 177             	2.44        	3.67        	                	;
 179             	2.44        	0.00        	                	;
 181             	2.44        	0.00        	                	;
 183             	3.35        	0.00        	                	;
 184             	4.88        	0.00        	                	;
 185             	4.88        	1.62        	                	;
 187             	3.81        	0.00        	                	;
 189             	1.22        	6.81        	                	;
 191             	7.62        	5.17        	                	;
 193             	5.49        	4.50        	                	;
 195             	4.72        	0.00        	                	;
 197             	7.01        	1.08        	                	;
 199             	-0.61       	7.53        	                	;
 201             	0.03        	2.81        	                	;
 203             	0.61        	0.06        	5               	;
 204             	6.40        	0.00        	                	;
 205             	6.40        	4.12        	                	;
 206             	0.30        	0.00        	                	;
 207             	2.74        	4.38        	                	;
 208             	4.88        	0.00        	                	;
 209             	-0.61       	0.05        	                	;
 211             	2.13        	0.55        	                	;
 213             	2.13        	0.88        	                	;
 215             	2.13        	5.82        	                	;
 217             	1.83        	1.53        	                	;
 219             	1.22        	2.61        	                	;
 225             	2.44        	1.44        	                	;
 229             	3.20        	4.05        	                	;
 231             	1.52        	1.04        	                	;
 237             	4.27        	0.98        	                	;
 239             	3.96        	2.81        	                	;
 241             	3.96        	0.00        	                	;
 243             	4.27        	0.27        	                	;
 247             	5.49        	4.44        	                	;
 249             	5.49        	0.00        	                	;
 251             	9.14        	1.52        	                	;
 253             	10.97       	3.44        	                	;
 255             	8.23        	2.55        	                	;
 257             	5.18        	0.00        	                	;
 259             	7.62        	0.00        	                	;
 261             	0.00        	0.00        	                	;
 263             	0.00        	0.00        	                	;
 265             	0.00        	0.00        	                	;
 267             	6.40        	0.00        	                	;
 269             	0.00        	0.00        	                	;
 271             	1.83        	0.00        	                	;
 273             	2.44        	0.00        	                	;
 275             	3.05        	0.00        	                	;

[RESERVOIRS]
;ID              	Head        	Pattern         
 Rio             	67.05       	                	;
 Lago            	50.90       	                	;

[TANKS]
;ID              	Elevation   	InitLevel   	MinLevel    	MaxLevel    	Diameter    	MinVol      	VolCurve
 1               	40.20       	3.99        	0.03        	9.78        	25.91       	0           	                	;
 2               	35.51       	7.16        	1.98        	12.28       	15.24       	0           	                	;
 3               	39.32       	8.84        	1.22        	10.82       	49.99       	0           	                	;

[PIPES]
;ID              	Node1           	Node2           	Length      	Diameter    	Roughness   	MinorLoss   	Status
 20              	3               	20              	30          	2500        	0.15        	0           	Open  	;
 40              	1               	40              	30          	2500        	0.15        	0           	Open  	;
 50              	2               	50              	30          	2500        	0.15        	0           	Open  	;
 60              	Rio             	60              	380         	600         	0.14        	0           	Open  	;
 101             	10              	101             	4330        	450         	0.11        	0           	Open  	;
 103             	101             	103             	410         	400         	0.13        	0           	Open  	;
 105             	101             	105             	770         	300         	0.13        	0           	Open  	;
 107             	105             	107             	450         	300         	0.13        	0           	Open  	;
 109             	103             	109             	1200        	400         	0.13        	0           	Open  	;
 111             	109             	111             	610         	300         	0.13        	0           	Open  	;
 112             	115             	111             	350         	300         	0.13        	0           	Open  	;
 113             	111             	113             	510         	300         	0.13        	0           	Open  	;
 114             	115             	113             	610         	200         	0.13        	0           	Open  	;
 115             	107             	115             	590         	200         	0.13        	0           	Open  	;
 116             	113             	193             	510         	300         	0.13        	0           	Open  	;
 117             	263             	105             	830         	300         	0.13        	0           	Open  	;
 119             	115             	117             	660         	300         	0.13        	0           	Open  	;
 120             	119             	120             	220         	300         	0.13        	0           	Open  	;
 121             	120             	117             	570         	300         	0.13        	0           	Open  	;
 122             	121             	120             	630         	200         	0.13        	0           	Open  	;
 123             	121             	119             	610         	750         	0.14        	0           	Open  	;
 125             	123             	121             	460         	750         	0.14        	0           	Open  	;
 129             	121             	125             	280         	600         	0.13        	0           	Open  	;
 131             	125             	127             	990         	600         	0.13        	0           	Open  	;
 133             	20              	127             	240         	500         	0.13        	0           	Open  	;
 135             	127             	129             	270         	600         	0.13        	0           	Open  	;
 137             	129             	131             	1980        	400         	0.13        	0           	Open  	;
 145             	129             	139             	840         	200         	0.13        	0           	Open  	;
 147             	139             	141             	630         	200         	0.13        	0           	Open  	;
 149             	143             	141             	430         	200         	0.13        	0           	Open  	;
 151             	15              	143             	500         	200         	0.13        	0           	Open  	;
 153             	145             	141             	1070        	300         	0.13        	0           	Open  	;
 155             	147             	145             	670         	300         	0.13        	0           	Open  	;
 159             	147             	149             	270         	300         	0.13        	0           	Open  	;
 161             	149             	151             	310         	200         	0.13        	0           	Open  	;
 163             	151             	153             	360         	300         	0.13        	0           	Open  	;
 169             	125             	153             	1390        	200         	0.13        	0           	Open  	;
 171             	119             	151             	1060        	300         	0.13        	0           	Open  	;
 173             	119             	157             	630         	750         	0.14        	0           	Open  	;
 175             	157             	159             	890         	750         	0.14        	0           	Open  	;
 177             	159             	161             	610         	750         	0.14        	0           	Open  	;
 179             	161             	163             	130         	750         	0.14        	0           	Open  	;
 180             	163             	164             	50          	350         	0.13        	0           	Open  	;
 181             	164             	166             	150         	350         	0.13        	0           	Open  	;
 183             	265             	169             	180         	750         	0.14        	0           	Open  	;
 185             	167             	169             	20          	200         	0.13        	0           	Open  	;
 186             	187             	204             	30          	200         	0.13        	0           	Open  	;
 187             	169             	171             	390         	750         	0.14        	0           	Open  	;
 189             	171             	173             	20          	750         	0.14        	0           	Open  	;
 191             	271             	171             	230         	600         	0.13        	0           	Open  	;
 193             	35              	181             	10          	600         	0.13        	0           	Open  	;
 195             	181             	177             	10          	300         	0.13        	0           	Open  	;
 197             	177             	179             	10          	300         	0.13        	0           	Open  	;
 199             	179             	183             	60          	300         	0.13        	0           	Open  	;
 201             	40              	179             	360         	300         	0.13        	0           	Open  	;
 202             	185             	184             	30          	200         	0.13        	0           	Open  	;
 203             	183             	185             	160         	200         	0.13        	0           	Open  	;
 204             	184             	205             	1380        	300         	0.13        	0           	Open  	;
 205             	204             	185             	400         	300         	0.13        	0           	Open  	;
 207             	189             	183             	410         	300         	0.13        	0           	Open  	;
 209             	189             	187             	150         	200         	0.13        	0           	Open  	;
 211             	169             	269             	200         	300         	0.13        	0           	Open  	;
 213             	191             	187             	780         	300         	0.13        	0           	Open  	;
 215             	267             	189             	380         	300         	0.13        	0           	Open  	;
 217             	191             	193             	160         	300         	0.13        	0           	Open  	;
 219             	193             	195             	110         	300         	0.13        	0           	Open  	;
 221             	161             	195             	700         	200         	0.13        	0           	Open  	;
 223             	197             	191             	350         	300         	0.13        	0           	Open  	;
 225             	111             	197             	850         	300         	0.13        	0           	Open  	;
 229             	173             	199             	1220        	600         	0.14        	0           	Open  	;
 231             	199             	201             	190         	600         	0.14        	0           	Open  	;
 233             	201             	203             	380         	600         	0.13        	0           	Open  	;
 235             	199             	273             	220         	300         	0.13        	0           	Open  	;
 237             	205             	207             	370         	300         	0.13        	0           	Open  	;
 238             	207             	206             	140         	300         	0.13        	0           	Open  	;
 239             	275             	207             	440         	300         	0.13        	0           	Open  	;
 240             	206             	208             	160         	300         	0.13        	0           	Open  	;
 241             	208             	209             	270         	300         	0.13        	0           	Open  	;
 243             	209             	211             	370         	400         	0.13        	0           	Open  	;
 245             	211             	213             	300         	400         	0.13        	0           	Open  	;
 247             	213             	215             	1310        	400         	0.13        	0           	Open  	;
 249             	215             	217             	510         	400         	0.13        	0           	Open  	;
 251             	217             	219             	630         	350         	0.13        	0           	Open  	;
 257             	217             	225             	480         	300         	0.13        	0           	Open  	;
 261             	213             	229             	670         	200         	0.13        	0           	Open  	;
 263             	229             	231             	600         	300         	0.13        	0           	Open  	;
 269             	211             	237             	630         	300         	0.13        	0           	Open  	;
 271             	237             	229             	240         	200         	0.13        	0           	Open  	;
 273             	237             	239             	160         	300         	0.13        	0           	Open  	;
 275             	239             	241             	10          	300         	0.13        	0           	Open  	;
 277             	241             	243             	670         	300         	0.13        	0           	Open  	;
 281             	241             	247             	140         	250         	0.13        	0           	Open  	;
 283             	239             	249             	130         	300         	0.13        	0           	Open  	;
 285             	247             	249             	1           	300         	0.13        	0           	Open  	;
 287             	247             	255             	420         	250         	0.13        	0           	Open  	;
 289             	50              	255             	280         	250         	0.13        	0           	Open  	;
 291             	255             	253             	340         	250         	0.13        	0           	Open  	;
 293             	255             	251             	340         	200         	0.13        	0           	Open  	;
 295             	249             	251             	440         	300         	0.13        	0           	Open  	;
 297             	120             	257             	200         	200         	0.13        	0           	Open  	;
 299             	257             	259             	110         	200         	0.13        	0           	Open  	;
 301             	259             	263             	430         	200         	0.13        	0           	Open  	;
 303             	257             	261             	430         	200         	0.13        	0           	Open  	;
 305             	117             	261             	200         	300         	0.13        	0           	Open  	;
 307             	261             	263             	110         	300         	0.13        	0           	Open  	;
 309             	265             	267             	480         	200         	0.13        	0           	Open  	;
 311             	193             	267             	360         	300         	0.13        	0           	Open  	;
 313             	269             	189             	200         	300         	0.13        	0           	Open  	;
 315             	181             	271             	80          	600         	0.13        	0           	Open  	;
 317             	273             	275             	680         	200         	0.13        	0           	Open  	;
 319             	273             	205             	200         	300         	0.13        	0           	Open  	;
 321             	163             	265             	370         	750         	0.14        	0           	Open  	;
 323             	201             	275             	90          	300         	0.13        	0           	Open  	;
 325             	269             	271             	390         	200         	0.13        	0           	Open  	;
 329             	61              	123             	13870       	750         	0.14        	0           	Open  	;
 330             	60              	601             	1           	750         	0.14        	0           	Closed	;
 333             	601             	61              	1           	750         	0.14        	0           	Open  	;

[PUMPS]
;ID              	Node1           	Node2           	Parameters
 10              	Lago            	10              	HEAD 1	;
 335             	60              	61              	HEAD 2	;

[VALVES]
;ID              	Node1           	Node2           	Diameter    	Type	Setting     	MinorLoss   

[TAGS]

[DEMANDS]
;Junction        	Demand      	Pattern         	Category

[STATUS]
;ID              	Status/Setting
 10              	Closed

[PATTERNS]
;ID              	Multipliers
;General Default Demand Pattern
 1               	1.34        	1.94        	1.46        	1.44        	.76         	.92         
 1               	.85         	1.07        	.96         	1.1         	1.08        	1.19        
 1               	1.16        	1.08        	.96         	.83         	.79         	.74         
 1               	.64         	.64         	.85         	.96         	1.24        	1.67        
;Demand Pattern for Node 123
 2               	0           	0           	0           	0           	0           	1219        
 2               	0           	0           	0           	1866        	1836        	1818        
 2               	1818        	1822        	1822        	1817        	1824        	1816        
 2               	1833        	1817        	1830        	1814        	1840        	1859        
;Demand Pattern for Node 15
 3               	620         	620         	620         	620         	620         	360         
 3               	360         	0           	0           	0           	0           	360         
 3               	360         	360         	360         	360         	0           	0           
 3               	0           	0           	0           	0           	360         	360         
;Demand Pattern for Node 35
 4               	1637        	1706        	1719        	1719        	1791        	1819        
 4               	1777        	1842        	1815        	1825        	1856        	1801        
 4               	1819        	1733        	1664        	1620        	1613        	1620        
 4               	1616        	1647        	1627        	1627        	1671        	1668        
;Demand Pattern for Node 203
 5               	4439        	4531        	4511        	4582        	4531        	4582        
 5               	4572        	4613        	4643        	4643        	4592        	4613        
 5               	4531        	4521        	4449        	4439        	4449        	4460        
 5               	4439        	4419        	4368        	4399        	4470        	4480        

[CURVES]
;ID              	X-Value     	Y-Value
;BOMBA:  PUMP: Pump Curve for Pump 10 (Lake Source)
 1               	0           	31.70       
 1               	126.18      	28.04       
 1               	252.36      	19.20       
;BOMBA:  PUMP: Pump Curve for Pump 335 (River Source)
 2               	0           	60.96       
 2               	504.72      	42.06       
 2               	883.26      	26.21       

[CONTROLS]
;Lake source operates only part of the day
Link 10 OPEN AT TIME 1
Link 10 CLOSED AT TIME 15

;Pump 335 controlled by level in Tank 1
;When pump is closed. bypass pipe is opened
Link 335 OPEN IF Node 1 BELOW 12.02
Link 335 CLOSED IF Node 1 ABOVE 13.43
Link 330 CLOSED IF Node 1 BELOW 12.02
Link 330 OPEN IF Node 1 ABOVE 13.43




[RULES]



[ENERGY]
 Global Efficiency  	75
 Global Price       	0.0
 Demand Charge      	0.0

[EMITTERS]
;Junction        	Coefficient

[QUALITY]
;Node            	InitQual

[SOURCES]
;Node            	Type        	Quality     	Pattern

[REACTIONS]
;Type     	Pipe/Tank       	Coefficient


[REACTIONS]
 Order Bulk            	1
 Order Tank            	1
 Order Wall            	1
 Global Bulk           	0.0
 Global Wall           	0.0
 Limiting Potential    	0.0
 Roughness Correlation 	0.0

[MIXING]
;Tank            	Model

[TIMES]
 Duration           	24:00 
 Hydraulic Timestep 	1:00 
 Quality Timestep   	0:05 
 Pattern Timestep   	1:00 
 Pattern Start      	0:00 
 Report Timestep    	1:00 
 Report Start       	0:00 
 Start ClockTime    	12 am
 Statistic          	NONE

[REPORT]
 Status             	No
 Summary            	No
 Page               	0

[OPTIONS]
 Units              	LPS
 Headloss           	D-W
 Specific Gravity   	1.0
 Viscosity          	1.0
 Trials             	40
 Accuracy           	0.001
 CHECKFREQ          	2
 MAXCHECK           	10
 DAMPLIMIT          	0
 Unbalanced         	Continue 10
 Pattern            	1
 Demand Multiplier  	1.0
 Emitter Exponent   	0.5
 Quality            	Trace Lago
 Diffusivity        	1.0
 Tolerance          	0.01

[COORDINATES]
;Node            	X-Coord         	Y-Coord
 10              	9.00            	27.85           
 15              	38.68           	23.76           
 20              	29.44           	26.91           
 35              	25.46           	10.52           
 40              	27.02           	9.81            
 50              	33.01           	3.01            
 60              	23.90           	29.94           
 601             	23.00           	29.49           
 61              	23.71           	29.03           
 101             	13.81           	22.94           
 103             	12.96           	21.31           
 105             	16.97           	21.28           
 107             	18.45           	20.46           
 109             	17.64           	18.92           
 111             	20.21           	17.53           
 113             	22.04           	16.61           
 115             	20.98           	19.18           
 117             	21.69           	21.28           
 119             	23.70           	22.76           
 120             	22.08           	23.10           
 121             	23.54           	25.50           
 123             	23.37           	27.31           
 125             	24.59           	25.64           
 127             	29.29           	26.40           
 129             	30.32           	26.39           
 131             	37.89           	29.55           
 139             	33.28           	24.54           
 141             	35.68           	23.08           
 143             	37.47           	21.97           
 145             	33.02           	19.29           
 147             	30.24           	20.38           
 149             	29.62           	20.74           
 151             	28.29           	21.39           
 153             	28.13           	22.63           
 157             	24.85           	20.16           
 159             	23.12           	17.50           
 161             	25.10           	15.28           
 163             	25.39           	14.98           
 164             	25.98           	15.14           
 166             	26.48           	15.13           
 167             	25.88           	12.98           
 169             	25.68           	12.74           
 171             	26.65           	11.80           
 173             	26.87           	11.59           
 179             	25.71           	10.40           
 181             	25.72           	10.74           
 183             	25.45           	10.18           
 184             	25.15           	9.52            
 185             	25.01           	9.67            
 187             	23.64           	11.04           
 189             	24.15           	11.37           
 191             	22.10           	14.07           
 193             	22.88           	14.35           
 195             	23.18           	14.72           
 197             	20.97           	15.18           
 199             	29.42           	8.44            
 201             	30.89           	8.57            
 203             	31.14           	8.89            
 204             	23.80           	10.90           
 205             	29.20           	6.46            
 206             	31.66           	6.64            
 207             	31.00           	6.61            
 208             	32.54           	6.81            
 209             	33.76           	6.59            
 211             	34.20           	5.54            
 213             	35.26           	6.16            
 215             	39.95           	8.73            
 217             	42.11           	8.67            
 219             	44.86           	9.32            
 225             	43.53           	7.38            
 229             	36.16           	3.49            
 231             	38.38           	2.54            
 237             	35.37           	3.08            
 239             	35.76           	2.31            
 241             	35.87           	2.11            
 243             	37.04           	0.00            
 247             	35.02           	2.05            
 249             	35.02           	1.81            
 251             	34.15           	1.10            
 253             	32.17           	1.88            
 255             	33.51           	2.45            
 257             	21.17           	23.32           
 259             	20.80           	23.40           
 261             	20.79           	21.45           
 263             	20.32           	21.57           
 265             	25.39           	13.60           
 267             	23.38           	12.95           
 269             	25.03           	12.14           
 271             	25.97           	11.00           
 273             	29.16           	7.38            
 275             	31.07           	8.29            
 Rio             	24.15           	31.06           
 Lago            	8.00            	27.53           
 1               	27.46           	9.84            
 2               	32.99           	3.45            
 3               	29.41           	27.27           

[VERTICES]
;Link            	X-Coord         	Y-Coord

[LABELS]
;X-Coord           Y-Coord          Label & Anchor Node
 7.98             29.42            "LAGO"                 
 25.02            31.09            "RIO"                 

[BACKDROP]
 DIMENSIONS     	6.16            	-1.55           	46.70           	32.61           